plots/csv/rotor_angle_dev_bus26_julia.csv
t_s,rotor_angle_dev_rad,bus_voltage_angle_dev_rad,angle_source,angle_is_exact_bus_voltage
0.0,0.0,0.0,Vmag_get_voltage_magnitude_series__angle_get_voltage_angle_series,true
0.01,9.554856905680253e-16,9.554856905680253e-16,Vmag_get_voltage_magnitude_series__angle_get_voltage_angle_series,true
0.02,1.2212453270876878e-16,1.2212453270876878e-16,Vmag_get_voltage_magnitude_series__angle_get_voltage_angle_series,true
0.03,1.221245327087555e-16,1.221245327087555e-16,Vmag_get_voltage_magnitude_series__angle_get_voltage_angle_series,true
0.04,1.4155343563970935e-16,1.4155343563970935e-16,Vmag_get_voltage_magnitude_series__angle_get_voltage_angle_series,true
0.05,-1.103284130721152e-16,-1.103284130721152e-16,Vmag_get_voltage_magnitude_series__angle_get_voltage_angle_series,true
0.06,-7.216449660066027e-17,-7.216449660066027e-17,Vmag_get_voltage_magnitude_series__angle_get_voltage_angle_series,true
0.07,6.800116025829638e-17,6.800116025829638e-17,Vmag_get_voltage_magnitude_series__angle_get_voltage_angle_series,true
0.08,1.1587952819525557e-16,1.1587952819525557e-16,Vmag_get_voltage_magnitude_series__angle_get_voltage_angle_series,true
0.09,-1.4016565685891075e-16,-1.4016565685891075e-16,Vmag_get_voltage_magnitude_series__angle_get_voltage_angle_series,true
0.1,-9.71445146547012e-17,-9.71445146547012e-17,Vmag_get_voltage_magnitude_series__angle_get_voltage_angle_series,true
0.11,-0.0015217320821344347,-0.0015217320821344347,Vmag_get_voltage_magnitude_series__angle_get_voltage_angle_series,true
0.12,-0.0015206365825704284,-0.0015206365825704284,Vmag_get_voltage_magnitude_series__angle_get_voltage_angle_series,true
0.13,-0.00134500555531683,-0.00134500555531683,Vmag_get_voltage_magnitude_series__angle_get_voltage_angle_series,true
0.14,-0.001313608319906988,-0.001313608319906988,Vmag_get_voltage_magnitude_series__angle_get_voltage_angle_series,true
0.15,-0.0013415003419419628,-0.0013415003419419628,Vmag_get_voltage_magnitude_series__angle_get_voltage_angle_series,true
0.16,-0.0014097012325873794,-0.0014097012325873794,Vmag_get_voltage_magnitude_series__angle_get_voltage_angle_series,true
0.17,-0.001502967660574195,-0.001502967660574195,Vmag_get_voltage_magnitude_series__angle_get_voltage_angle_series,true
0.18,-0.0016142641885548293,-0.0016142641885548293,Vmag_get_voltage_magnitude_series__angle_get_voltage_angle_series,true
0.19,-0.0017378521996572385,-0.0017378521996572385,Vmag_get_voltage_magnitude_series__angle_get_voltage_angle_series,true
0.2,-0.0018720415965524048,-0.0018720415965524048,Vmag_get_voltage_magnitude_series__angle_get_voltage_angle_series,true
0.21,-0.002015880749693779,-0.002015880749693779,Vmag_get_voltage_magnitude_series__angle_get_voltage_angle_series,true
0.22,-0.0021689279863877004,-0.0021689279863877004,Vmag_get_voltage_magnitude_series__angle_get_voltage_angle_series,true
0.23,-0.0023307572279527597,-0.0023307572279527597,Vmag_get_voltage_magnitude_series__angle_get_voltage_angle_series,true
0.24,-0.0025010840020272276,-0.0025010840020272276,Vmag_get_voltage_magnitude_series__angle_get_voltage_angle_series,true
0.25,-0.0026796550996960513,-0.0026796550996960513,Vmag_get_voltage_magnitude_series__angle_get_voltage_angle_series,true
0.26,-0.002866259643119152,-0.002866259643119152,Vmag_get_voltage_magnitude_series__angle_get_voltage_angle_series,true
0.27,-0.003060709381339083,-0.003060709381339083,Vmag_get_voltage_magnitude_series__angle_get_voltage_angle_series,true
0.28,-0.003262836080637469,-0.003262836080637469,Vmag_get_voltage_magnitude_series__angle_get_voltage_angle_series,true
0.29,-0.003472486690316445,-0.003472486690316445,Vmag_get_voltage_magnitude_series__angle_get_voltage_angle_series,true
0.3,-0.00368951727864663,-0.00368951727864663,Vmag_get_voltage_magnitude_series__angle_get_voltage_angle_series,true
0.31,-0.003913786639870145,-0.003913786639870145,Vmag_get_voltage_magnitude_series__angle_get_voltage_angle_series,true
0.32,-0.00414514857481793,-0.00414514857481793,Vmag_get_voltage_magnitude_series__angle_get_voltage_angle_series,true
0.33,-0.004383443423457899,-0.004383443423457899,Vmag_get_voltage_magnitude_series__angle_get_voltage_angle_series,true
0.34,-0.004628489984809261,-0.004628489984809261,Vmag_get_voltage_magnitude_series__angle_get_voltage_angle_series,true
0.35,-0.004880077710056416,-0.004880077710056416,Vmag_get_voltage_magnitude_series__angle_get_voltage_angle_series,true
0.36,-0.0051379604501687985,-0.0051379604501687985,Vmag_get_voltage_magnitude_series__angle_get_voltage_angle_series,true
0.37,-0.005401851809556612,-0.005401851809556612,Vmag_get_voltage_magnitude_series__angle_get_voltage_angle_series,true
0.38,-0.005671422280394916,-0.005671422280394916,Vmag_get_voltage_magnitude_series__angle_get_voltage_angle_series,true
0.39,-0.00594629870513675,-0.00594629870513675,Vmag_get_voltage_magnitude_series__angle_get_voltage_angle_series,true
0.4,-0.0062260651758659375,-0.0062260651758659375,Vmag_get_voltage_magnitude_series__angle_get_voltage_angle_series,true
0.41,-0.006510266083446363,-0.006510266083446363,Vmag_get_voltage_magnitude_series__angle_get_voltage_angle_series,true
0.42,-0.0067984101713957105,-0.0067984101713957105,Vmag_get_voltage_magnitude_series__angle_get_voltage_angle_series,true
0.43,-0.007089975747454811,-0.007089975747454811,Vmag_get_voltage_magnitude_series__angle_get_voltage_angle_series,true
0.44,-0.007384416779484276,-0.007384416779484276,Vmag_get_voltage_magnitude_series__angle_get_voltage_angle_series,true
0.45,-0.007681168985175055,-0.007681168985175055,Vmag_get_voltage_magnitude_series__angle_get_voltage_angle_series,true
0.46,-0.007979656404292162,-0.007979656404292162,Vmag_get_voltage_magnitude_series__angle_get_voltage_angle_series,true
0.47,-0.008279297590469118,-0.008279297590469118,Vmag_get_voltage_magnitude_series__angle_get_voltage_angle_series,true
0.48,-0.008579511592476571,-0.008579511592476571,Vmag_get_voltage_magnitude_series__angle_get_voltage_angle_series,true
0.49,-0.00887972351045548,-0.00887972351045548,Vmag_get_voltage_magnitude_series__angle_get_voltage_angle_series,true
0.5,-0.009179369427949863,-0.009179369427949863,Vmag_get_voltage_magnitude_series__angle_get_voltage_angle_series,true
0.51,-0.00947790089573819,-0.00947790089573819,Vmag_get_voltage_magnitude_series__angle_get_voltage_angle_series,true
0.52,-0.009774788686259884,-0.009774788686259884,Vmag_get_voltage_magnitude_series__angle_get_voltage_angle_series,true
0.53,-0.010069526025842115,-0.010069526025842115,Vmag_get_voltage_magnitude_series__angle_get_voltage_angle_series,true
0.54,-0.010361631228981177,-0.010361631228981177,Vmag_get_voltage_magnitude_series__angle_get_voltage_angle_series,true
0.55,-0.010650649726805317,-0.010650649726805317,Vmag_get_voltage_magnitude_series__angle_get_voltage_angle_series,true
0.56,-0.010936155667644675,-0.010936155667644675,Vmag_get_voltage_magnitude_series__angle_get_voltage_angle_series,true
0.57,-0.011217752943274694,-0.011217752943274694,Vmag_get_voltage_magnitude_series__angle_get_voltage_angle_series,true
0.58,-0.011495075888605004,-0.011495075888605004,Vmag_get_voltage_magnitude_series__angle_get_voltage_angle_series,true
0.59,-0.01176778953985863,-0.01176778953985863,Vmag_get_voltage_magnitude_series__angle_get_voltage_angle_series,true
0.6,-0.012035589603451628,-0.012035589603451628,Vmag_get_voltage_magnitude_series__angle_get_voltage_angle_series,true
0.61,-0.012298202182069572,-0.012298202182069572,Vmag_get_voltage_magnitude_series__angle_get_voltage_angle_series,true
0.62,-0.0125553831957273,-0.0125553831957273,Vmag_get_voltage_magnitude_series__angle_get_voltage_angle_series,true
0.63,-0.012806917751112833,-0.012806917751112833,Vmag_get_voltage_magnitude_series__angle_get_voltage_angle_series,true
0.64,-0.01305261928442999,-0.01305261928442999,Vmag_get_voltage_magnitude_series__angle_get_voltage_angle_series,true
0.65,-0.013292328643307778,-0.013292328643307778,Vmag_get_voltage_magnitude_series__angle_get_voltage_angle_series,true
0.66,-0.013525913138692931,-0.013525913138692931,Vmag_get_voltage_magnitude_series__angle_get_voltage_angle_series,true
0.67,-0.01375326549495221,-0.01375326549495221,Vmag_get_voltage_magnitude_series__angle_get_voltage_angle_series,true
0.68,-0.013974302862007232,-0.013974302862007232,Vmag_get_voltage_magnitude_series__angle_get_voltage_angle_series,true
0.69,-0.014188965770215658,-0.014188965770215658,Vmag_get_voltage_magnitude_series__angle_get_voltage_angle_series,true
0.7,-0.014397217118909782,-0.014397217118909782,Vmag_get_voltage_magnitude_series__angle_get_voltage_angle_series,true
0.71,-0.014599041188962525,-0.014599041188962525,Vmag_get_voltage_magnitude_series__angle_get_voltage_angle_series,true
0.72,-0.014794442644194517,-0.014794442644194517,Vmag_get_voltage_magnitude_series__angle_get_voltage_angle_series,true
0.73,-0.014983445589299205,-0.014983445589299205,Vmag_get_voltage_magnitude_series__angle_get_voltage_angle_series,true
0.74,-0.015166092603051039,-0.015166092603051039,Vmag_get_voltage_magnitude_series__angle_get_voltage_angle_series,true
0.75,-0.015342443792949568,-0.015342443792949568,Vmag_get_voltage_magnitude_series__angle_get_voltage_angle_series,true
0.76,-0.015512575864318564,-0.015512575864318564,Vmag_get_voltage_magnitude_series__angle_get_voltage_angle_series,true
0.77,-0.01567658116148743,-0.01567658116148743,Vmag_get_voltage_magnitude_series__angle_get_voltage_angle_series,true
0.78,-0.01583456672064581,-0.01583456672064581,Vmag_get_voltage_magnitude_series__angle_get_voltage_angle_series,true
0.79,-0.01598665329156233,-0.01598665329156233,Vmag_get_voltage_magnitude_series__angle_get_voltage_angle_series,true
0.8,-0.01613297435775503,-0.01613297435775503,Vmag_get_voltage_magnitude_series__angle_get_voltage_angle_series,true
0.81,-0.01627367513151872,-0.01627367513151872,Vmag_get_voltage_magnitude_series__angle_get_voltage_angle_series,true
0.82,-0.01640891151946337,-0.01640891151946337,Vmag_get_voltage_magnitude_series__angle_get_voltage_angle_series,true
0.83,-0.01653884909139614,-0.01653884909139614,Vmag_get_voltage_magnitude_series__angle_get_voltage_angle_series,true
0.84,-0.016663662011052616,-0.016663662011052616,Vmag_get_voltage_magnitude_series__angle_get_voltage_angle_series,true
0.85,-0.016783531969251243,-0.016783531969251243,Vmag_get_voltage_magnitude_series__angle_get_voltage_angle_series,true
0.86,-0.016898647097492597,-0.016898647097492597,Vmag_get_voltage_magnitude_series__angle_get_voltage_angle_series,true
0.87,-0.017009200883968345,-0.017009200883968345,Vmag_get_voltage_magnitude_series__angle_get_voltage_angle_series,true
0.88,-0.017115391097641455,-0.017115391097641455,Vmag_get_voltage_magnitude_series__angle_get_voltage_angle_series,true
0.89,-0.017217418703545644,-0.017217418703545644,Vmag_get_voltage_magnitude_series__angle_get_voltage_angle_series,true
0.9,-0.01731548681874365,-0.01731548681874365,Vmag_get_voltage_magnitude_series__angle_get_voltage_angle_series,true
0.91,-0.017409799668230565,-0.017409799668230565,Vmag_get_voltage_magnitude_series__angle_get_voltage_angle_series,true
0.92,-0.017500561582354596,-0.017500561582354596,Vmag_get_voltage_magnitude_series__angle_get_voltage_angle_series,true
0.93,-0.017587976033618894,-0.017587976033618894,Vmag_get_voltage_magnitude_series__angle_get_voltage_angle_series,true
0.94,-0.017672244696680647,-0.017672244696680647,Vmag_get_voltage_magnitude_series__angle_get_voltage_angle_series,true
0.95,-0.017753566579254927,-0.017753566579254927,Vmag_get_voltage_magnitude_series__angle_get_voltage_angle_series,true
0.96,-0.017832137185060944,-0.017832137185060944,Vmag_get_voltage_magnitude_series__angle_get_voltage_angle_series,true
0.97,-0.01790814774681754,-0.01790814774681754,Vmag_get_voltage_magnitude_series__angle_get_voltage_angle_series,true
0.98,-0.01798178450968194,-0.01798178450968194,Vmag_get_voltage_magnitude_series__angle_get_voltage_angle_series,true
0.99,-0.018053228077355894,-0.018053228077355894,Vmag_get_voltage_magnitude_series__angle_get_voltage_angle_series,true
1.0,-0.01812265283666315,-0.01812265283666315,Vmag_get_voltage_magnitude_series__angle_get_voltage_angle_series,true
1.01,-0.01819022642256943,-0.01819022642256943,Vmag_get_voltage_magnitude_series__angle_get_voltage_angle_series,true
1.02,-0.01825610927302085,-0.01825610927302085,Vmag_get_voltage_magnitude_series__angle_get_voltage_angle_series,true
1.03,-0.018320454240418525,-0.018320454240418525,Vmag_get_voltage_magnitude_series__angle_get_voltage_angle_series,true
1.04,-0.018383406261723356,-0.018383406261723356,Vmag_get_voltage_magnitude_series__angle_get_voltage_angle_series,true
1.05,-0.018445102112373376,-0.018445102112373376,Vmag_get_voltage_magnitude_series__angle_get_voltage_angle_series,true
1.06,-0.01850567020116299,-0.01850567020116299,Vmag_get_voltage_magnitude_series__angle_get_voltage_angle_series,true
1.07,-0.018565230441654663,-0.018565230441654663,Vmag_get_voltage_magnitude_series__angle_get_voltage_angle_series,true
1.08,-0.018623894177245394,-0.018623894177245394,Vmag_get_voltage_magnitude_series__angle_get_voltage_angle_series,true
1.09,-0.01868176415853766,-0.01868176415853766,Vmag_get_voltage_magnitude_series__angle_get_voltage_angle_series,true
1.1,-0.01873893458357157,-0.01873893458357157,Vmag_get_voltage_magnitude_series__angle_get_voltage_angle_series,true
1.11,-0.01879549117275852,-0.01879549117275852,Vmag_get_voltage_magnitude_series__angle_get_voltage_angle_series,true
1.12,-0.018851511304449276,-0.018851511304449276,Vmag_get_voltage_magnitude_series__angle_get_voltage_angle_series,true
1.13,-0.018907064188285787,-0.018907064188285787,Vmag_get_voltage_magnitude_series__angle_get_voltage_angle_series,true
1.14,-0.01896221107230573,-0.01896221107230573,Vmag_get_voltage_magnitude_series__angle_get_voltage_angle_series,true
1.15,-0.019017005494455216,-0.019017005494455216,Vmag_get_voltage_magnitude_series__angle_get_voltage_angle_series,true
1.16,-0.019071493562277202,-0.019071493562277202,Vmag_get_voltage_magnitude_series__angle_get_voltage_angle_series,true
1.17,-0.0191257142610234,-0.0191257142610234,Vmag_get_voltage_magnitude_series__angle_get_voltage_angle_series,true
1.18,-0.01917969978639255,-0.01917969978639255,Vmag_get_voltage_magnitude_series__angle_get_voltage_angle_series,true
1.19,-0.019233475899536064,-0.019233475899536064,Vmag_get_voltage_magnitude_series__angle_get_voltage_angle_series,true
1.2,-0.019287062303632953,-0.019287062303632953,Vmag_get_voltage_magnitude_series__angle_get_voltage_angle_series,true
1.21,-0.019340473026888842,-0.019340473026888842,Vmag_get_voltage_magnitude_series__angle_get_voltage_angle_series,true
1.22,-0.019393716825123305,-0.019393716825123305,Vmag_get_voltage_magnitude_series__angle_get_voltage_angle_series,true
1.23,-0.019446797586920743,-0.019446797586920743,Vmag_get_voltage_magnitude_series__angle_get_voltage_angle_series,true
1.24,-0.01949971475026611,-0.01949971475026611,Vmag_get_voltage_magnitude_series__angle_get_voltage_angle_series,true
1.25,-0.019552463714533494,-0.019552463714533494,Vmag_get_voltage_magnitude_series__angle_get_voltage_angle_series,true
1.26,-0.01960503625557649,-0.01960503625557649,Vmag_get_voltage_magnitude_series__angle_get_voltage_angle_series,true
1.27,-0.019657420942307456,-0.019657420942307456,Vmag_get_voltage_magnitude_series__angle_get_voltage_angle_series,true
1.28,-0.01970960353731867,-0.01970960353731867,Vmag_get_voltage_magnitude_series__angle_get_voltage_angle_series,true
1.29,-0.01976156740129189,-0.01976156740129189,Vmag_get_voltage_magnitude_series__angle_get_voltage_angle_series,true
1.3,-0.01981329388043105,-0.01981329388043105,Vmag_get_voltage_magnitude_series__angle_get_voltage_angle_series,true
1.31,-0.01986476268224393,-0.01986476268224393,Vmag_get_voltage_magnitude_series__angle_get_voltage_angle_series,true
1.32,-0.019915952244941377,-0.019915952244941377,Vmag_get_voltage_magnitude_series__angle_get_voltage_angle_series,true
1.33,-0.019966840080646142,-0.019966840080646142,Vmag_get_voltage_magnitude_series__angle_get_voltage_angle_series,true
1.34,-0.020017403112289608,-0.020017403112289608,Vmag_get_voltage_magnitude_series__angle_get_voltage_angle_series,true
1.35,-0.020067617985980186,-0.020067617985980186,Vmag_get_voltage_magnitude_series__angle_get_voltage_angle_series,true
1.36,-0.020117461366535007,-0.020117461366535007,Vmag_get_voltage_magnitude_series__angle_get_voltage_angle_series,true
1.37,-0.020166910215041436,-0.020166910215041436,Vmag_get_voltage_magnitude_series__angle_get_voltage_angle_series,true
1.38,-0.020215942041235554,-0.020215942041235554,Vmag_get_voltage_magnitude_series__angle_get_voltage_angle_series,true
1.39,-0.020264535139713356,-0.020264535139713356,Vmag_get_voltage_magnitude_series__angle_get_voltage_angle_series,true
1.4,-0.020312668799623283,-0.020312668799623283,Vmag_get_voltage_magnitude_series__angle_get_voltage_angle_series,true
1.41,-0.02036032349614525,-0.02036032349614525,Vmag_get_voltage_magnitude_series__angle_get_voltage_angle_series,true
1.42,-0.020407481058682654,-0.020407481058682654,Vmag_get_voltage_magnitude_series__angle_get_voltage_angle_series,true
1.43,-0.020454124814375325,-0.020454124814375325,Vmag_get_voltage_magnitude_series__angle_get_voltage_angle_series,true
1.44,-0.02050023971504292,-0.02050023971504292,Vmag_get_voltage_magnitude_series__angle_get_voltage_angle_series,true
1.45,-0.02054581243780152,-0.02054581243780152,Vmag_get_voltage_magnitude_series__angle_get_voltage_angle_series,true
1.46,-0.02059083146622708,-0.02059083146622708,Vmag_get_voltage_magnitude_series__angle_get_voltage_angle_series,true
1.47,-0.02063528715234658,-0.02063528715234658,Vmag_get_voltage_magnitude_series__angle_get_voltage_angle_series,true
1.48,-0.02067917175626226,-0.02067917175626226,Vmag_get_voltage_magnitude_series__angle_get_voltage_angle_series,true
1.49,-0.02072247946980508,-0.02072247946980508,Vmag_get_voltage_magnitude_series__angle_get_voltage_angle_series,true
1.5,-0.02076520641741199,-0.02076520641741199,Vmag_get_voltage_magnitude_series__angle_get_voltage_angle_series,true
1.51,-0.020807350645217958,-0.020807350645217958,Vmag_get_voltage_magnitude_series__angle_get_voltage_angle_series,true
1.52,-0.020848912090245957,-0.020848912090245957,Vmag_get_voltage_magnitude_series__angle_get_voltage_angle_series,true
1.53,-0.020889892535278426,-0.020889892535278426,Vmag_get_voltage_magnitude_series__angle_get_voltage_angle_series,true
1.54,-0.020930295551256563,-0.020930295551256563,Vmag_get_voltage_magnitude_series__angle_get_voltage_angle_series,true
1.55,-0.02097012642446937,-0.02097012642446937,Vmag_get_voltage_magnitude_series__angle_get_voltage_angle_series,true
1.56,-0.021009392074734807,-0.021009392074734807,Vmag_get_voltage_magnitude_series__angle_get_voltage_angle_series,true
1.57,-0.02104810096122599,-0.02104810096122599,Vmag_get_voltage_magnitude_series__angle_get_voltage_angle_series,true
1.58,-0.02108626298061744,-0.02108626298061744,Vmag_get_voltage_magnitude_series__angle_get_voltage_angle_series,true
1.59,-0.021123889357923992,-0.021123889357923992,Vmag_get_voltage_magnitude_series__angle_get_voltage_angle_series,true
1.6,-0.021160992527878675,-0.021160992527878675,Vmag_get_voltage_magnitude_series__angle_get_voltage_angle_series,true
1.61,-0.021197586015784625,-0.021197586015784625,Vmag_get_voltage_magnitude_series__angle_get_voltage_angle_series,true
1.62,-0.021233684309939847,-0.021233684309939847,Vmag_get_voltage_magnitude_series__angle_get_voltage_angle_series,true
1.63,-0.021269302733585696,-0.021269302733585696,Vmag_get_voltage_magnitude_series__angle_get_voltage_angle_series,true
1.64,-0.02130445731552374,-0.02130445731552374,Vmag_get_voltage_magnitude_series__angle_get_voltage_angle_series,true
1.65,-0.02133916465750771,-0.02133916465750771,Vmag_get_voltage_magnitude_series__angle_get_voltage_angle_series,true
1.66,-0.02137344180613582,-0.02137344180613582,Vmag_get_voltage_magnitude_series__angle_get_voltage_angle_series,true
1.67,-0.021407306122234248,-0.021407306122234248,Vmag_get_voltage_magnitude_series__angle_get_voltage_angle_series,true
1.68,-0.021440775155263714,-0.021440775155263714,Vmag_get_voltage_magnitude_series__angle_get_voltage_angle_series,true
1.69,-0.02147386652109543,-0.02147386652109543,Vmag_get_voltage_magnitude_series__angle_get_voltage_angle_series,true
1.7,-0.021506597781353814,-0.021506597781353814,Vmag_get_voltage_magnitude_series__angle_get_voltage_angle_series,true
1.71,-0.02153898633137519,-0.02153898633137519,Vmag_get_voltage_magnitude_series__angle_get_voltage_angle_series,true
1.72,-0.021571049290549062,-0.021571049290549062,Vmag_get_voltage_magnitude_series__angle_get_voltage_angle_series,true
1.73,-0.02160280340094914,-0.02160280340094914,Vmag_get_voltage_magnitude_series__angle_get_voltage_angle_series,true
1.74,-0.021634264931577753,-0.021634264931577753,Vmag_get_voltage_magnitude_series__angle_get_voltage_angle_series,true
1.75,-0.02166544958963367,-0.02166544958963367,Vmag_get_voltage_magnitude_series__angle_get_voltage_angle_series,true
1.76,-0.02169637244102943,-0.02169637244102943,Vmag_get_voltage_magnitude_series__angle_get_voltage_angle_series,true
1.77,-0.021727047835999335,-0.021727047835999335,Vmag_get_voltage_magnitude_series__angle_get_voltage_angle_series,true
1.78,-0.0217574893451205,-0.0217574893451205,Vmag_get_voltage_magnitude_series__angle_get_voltage_angle_series,true
1.79,-0.021787709702905837,-0.021787709702905837,Vmag_get_voltage_magnitude_series__angle_get_voltage_angle_series,true
1.8,-0.02181772075869377,-0.02181772075869377,Vmag_get_voltage_magnitude_series__angle_get_voltage_angle_series,true
1.81,-0.021847533437511054,-0.021847533437511054,Vmag_get_voltage_magnitude_series__angle_get_voltage_angle_series,true
1.82,-0.02187715770816466,-0.02187715770816466,Vmag_get_voltage_magnitude_series__angle_get_voltage_angle_series,true
1.83,-0.02190660255960392,-0.02190660255960392,Vmag_get_voltage_magnitude_series__angle_get_voltage_angle_series,true
1.84,-0.02193587598591127,-0.02193587598591127,Vmag_get_voltage_magnitude_series__angle_get_voltage_angle_series,true
1.85,-0.021964984978246144,-0.021964984978246144,Vmag_get_voltage_magnitude_series__angle_get_voltage_angle_series,true
1.86,-0.02199393552560103,-0.02199393552560103,Vmag_get_voltage_magnitude_series__angle_get_voltage_angle_series,true
1.87,-0.022022732620999467,-0.022022732620999467,Vmag_get_voltage_magnitude_series__angle_get_voltage_angle_series,true
1.88,-0.022051380276529448,-0.022051380276529448,Vmag_get_voltage_magnitude_series__angle_get_voltage_angle_series,true
1.89,-0.022079881543622074,-0.022079881543622074,Vmag_get_voltage_magnitude_series__angle_get_voltage_angle_series,true
1.9,-0.022108238539557012,-0.022108238539557012,Vmag_get_voltage_magnitude_series__angle_get_voltage_angle_series,true
1.91,-0.022136452480257588,-0.022136452480257588,Vmag_get_voltage_magnitude_series__angle_get_voltage_angle_series,true
1.92,-0.02216452371752702,-0.02216452371752702,Vmag_get_voltage_magnitude_series__angle_get_voltage_angle_series,true
1.93,-0.02219245178148757,-0.02219245178148757,Vmag_get_voltage_magnitude_series__angle_get_voltage_angle_series,true
1.94,-0.022220235426736783,-0.022220235426736783,Vmag_get_voltage_magnitude_series__angle_get_voltage_angle_series,true
1.95,-0.022247872682442965,-0.022247872682442965,Vmag_get_voltage_magnitude_series__angle_get_voltage_angle_series,true
1.96,-0.02227536090607434,-0.02227536090607434,Vmag_get_voltage_magnitude_series__angle_get_voltage_angle_series,true
1.97,-0.02230269683844759,-0.02230269683844759,Vmag_get_voltage_magnitude_series__angle_get_voltage_angle_series,true
1.98,-0.022329876662345875,-0.022329876662345875,Vmag_get_voltage_magnitude_series__angle_get_voltage_angle_series,true
1.99,-0.02235689606164588,-0.02235689606164588,Vmag_get_voltage_magnitude_series__angle_get_voltage_angle_series,true
...
